
.SUBCKT sky130_fd_sc_ms__decap_8 vgnd vnb vpb vpwr
MMN0 vgnd vpwr vgnd vnb sky130_fd_pr_nfet_01v8_lvt W=0.42 L=1 M=2
MMP0 vpwr vgnd vpwr vpb sky130_fd_pr_pfet_01v8 W=1 L=1 M=2
.ENDS

.SUBCKT icecap c0
.ENDS

.SUBCKT sky130_fd_sc_ms__clkinv_8 A Y vgnd vnb vpb vpwr
MmMIN0 Y A vgnd vnb sky130_fd_pr_nfet_01v8_lvt W=0.42 L=0.15 M=8
MmMIP0 Y A vpwr vpb sky130_fd_pr_pfet_01v8 W=1.12 L=0.18 M=12
.ENDS

.SUBCKT IO_buf IN OUT OUTB VDD_D1V8 VSSD
XI1<12> VSSD VSSD VDD_D1V8 VDD_D1V8 / sky130_fd_sc_ms__decap_8
XI1<11> VSSD VSSD VDD_D1V8 VDD_D1V8 / sky130_fd_sc_ms__decap_8
XI1<10> VSSD VSSD VDD_D1V8 VDD_D1V8 / sky130_fd_sc_ms__decap_8
XI1<9> VSSD VSSD VDD_D1V8 VDD_D1V8 / sky130_fd_sc_ms__decap_8
XI1<8> VSSD VSSD VDD_D1V8 VDD_D1V8 / sky130_fd_sc_ms__decap_8
XI1<7> VSSD VSSD VDD_D1V8 VDD_D1V8 / sky130_fd_sc_ms__decap_8
XI1<6> VSSD VSSD VDD_D1V8 VDD_D1V8 / sky130_fd_sc_ms__decap_8
XI1<5> VSSD VSSD VDD_D1V8 VDD_D1V8 / sky130_fd_sc_ms__decap_8
XI1<4> VSSD VSSD VDD_D1V8 VDD_D1V8 / sky130_fd_sc_ms__decap_8
XI1<3> VSSD VSSD VDD_D1V8 VDD_D1V8 / sky130_fd_sc_ms__decap_8
XI1<2> VSSD VSSD VDD_D1V8 VDD_D1V8 / sky130_fd_sc_ms__decap_8
XI1<1> VSSD VSSD VDD_D1V8 VDD_D1V8 / sky130_fd_sc_ms__decap_8
CC0 VSSD VDD_D1V8 sky130_fd_pr_cap_mim_m3 A=145 P=68 m=1
XI2<1> IN OUTB VSSD VSSD VDD_D1V8 VDD_D1V8 / sky130_fd_sc_ms__clkinv_8
XI2<0> OUTB OUT VSSD VSSD VDD_D1V8 VDD_D1V8 / sky130_fd_sc_ms__clkinv_8
CC1 VDD_D1V8 VSSD sky130_fd_pr_cap_mim_m4 A=145 P=68 m=1
.ENDS

.SUBCKT sky130_fd_sc_ms__and4_1 A B C D X vgnd vnb vpb vpwr
MmMIN0 X y vgnd vnb sky130_fd_pr_nfet_01v8_lvt W=0.74 L=0.15 M=1
MmMN3 sndC D vgnd vnb sky130_fd_pr_nfet_01v8_lvt W=0.64 L=0.15 M=1
MmMN2 sndB C sndC vnb sky130_fd_pr_nfet_01v8_lvt W=0.64 L=0.15 M=1
MmMN1 sndA B sndB vnb sky130_fd_pr_nfet_01v8_lvt W=0.64 L=0.15 M=1
MmMN0 y A sndA vnb sky130_fd_pr_nfet_01v8_lvt W=0.64 L=0.15 M=1
MmMP0 y A vpwr vpb sky130_fd_pr_pfet_01v8 W=0.84 L=0.18 M=1
MmMP1 y B vpwr vpb sky130_fd_pr_pfet_01v8 W=0.84 L=0.18 M=1
MmMP2 y C vpwr vpb sky130_fd_pr_pfet_01v8 W=0.84 L=0.18 M=1
MmMP3 y D vpwr vpb sky130_fd_pr_pfet_01v8 W=0.84 L=0.18 M=1
MmMIP0 X y vpwr vpb sky130_fd_pr_pfet_01v8 W=1.12 L=0.18 M=1
.ENDS

.SUBCKT LS_2to5 IN INB OUT OUTB VDD VSS
MMP1 OUT OUTB VDD VDD sky130_fd_pr_pfet_01v8_v5 W=0.5 L=0.5 M=1
MMP0 OUTB OUT VDD VDD sky130_fd_pr_pfet_01v8_v5 W=0.5 L=0.5 M=1
MMN1 OUTB IN VSS VSS sky130_fd_pr_nfet_01v8_v5 W=1 L=0.5 M=2
MMN0 OUT INB VSS VSS sky130_fd_pr_nfet_01v8_v5 W=1 L=0.5 M=2
.ENDS

.SUBCKT sky130_fd_sc_ms__nand3_1 A B C Y vgnd vnb vpb vpwr
MmMN0 Y A sndA vnb sky130_fd_pr_nfet_01v8_lvt W=0.74 L=0.15 M=1
MmMN1 sndA B sndB vnb sky130_fd_pr_nfet_01v8_lvt W=0.74 L=0.15 M=1
MmMN2 sndB C vgnd vnb sky130_fd_pr_nfet_01v8_lvt W=0.74 L=0.15 M=1
MmMP0 Y A vpwr vpb sky130_fd_pr_pfet_01v8 W=1.12 L=0.18 M=1
MmMP1 Y B vpwr vpb sky130_fd_pr_pfet_01v8 W=1.12 L=0.18 M=1
MmMP2 Y C vpwr vpb sky130_fd_pr_pfet_01v8 W=1.12 L=0.18 M=1
.ENDS

.SUBCKT sky130_fd_sc_ms__inv_1 A Y vgnd vnb vpb vpwr
MmMIN1 Y A vgnd vnb sky130_fd_pr_nfet_01v8_lvt W=0.74 L=0.15 M=1
MmMIP1 Y A vpwr vpb sky130_fd_pr_pfet_01v8 W=1.12 L=0.18 M=1
.ENDS

.SUBCKT sky130_fd_sc_hvl__decap_8 vgnd vnb vpb vpwr
MmI2 vpwr vgnd vpwr vpb sky130_fd_pr_pfet_01v8_v5 W=1 L=1 M=2
MmI1 vgnd vpwr vgnd vnb sky130_fd_pr_nfet_01v8_v5 W=0.75 L=1 M=2
.ENDS

.SUBCKT RL_driver OUT SEL SELB VSEL VSS
MMN0 VSEL SEL OUT VSS sky130_fd_pr_nfet_01v8_v5 W=1 L=0.5 M=4
MMN1 OUT SELB VSS VSS sky130_fd_pr_nfet_01v8_v5 W=1 L=0.5 M=4
MMP0 OUT SELB VSEL VSEL sky130_fd_pr_pfet_01v8_v5 W=1 L=0.5 M=8
.ENDS

.SUBCKT RL_x4 ADDR[1] ADDR[0] ADDR[2] ADDRB[1] ADDRB[0] ADDRint[1] ADDRint[0] 
+ SEL_50[3] SEL_50[2] SEL_50[1] SEL_50[0] SELin_2 VDD2 VDD5 VSEL VSS
XI10<3> SELi_2[3] SELBi_2[3] SELi_50[3] SELBi_50[3] VDD5 VSS / LS_2to5
XI10<2> SELi_2[2] SELBi_2[2] SELi_50[2] SELBi_50[2] VDD5 VSS / LS_2to5
XI10<1> SELi_2[1] SELBi_2[1] SELi_50[1] SELBi_50[1] VDD5 VSS / LS_2to5
XI10<0> SELi_2[0] SELBi_2[0] SELi_50[0] SELBi_50[0] VDD5 VSS / LS_2to5
XI8 ADDRint[0] ADDRint[1] ADDR[2] SELin_2 ADDRint[2] VSS VSS VDD2 VDD2 / 
+ sky130_fd_sc_ms__and4_1
XI7<3> ADDRint[2] ADDR[1] ADDR[0] SELBi_2[3] VSS VSS VDD2 VDD2 / 
+ sky130_fd_sc_ms__nand3_1
XI7<2> ADDRint[2] ADDR[1] ADDRB[0] SELBi_2[2] VSS VSS VDD2 VDD2 / 
+ sky130_fd_sc_ms__nand3_1
XI7<1> ADDRint[2] ADDRB[1] ADDR[0] SELBi_2[1] VSS VSS VDD2 VDD2 / 
+ sky130_fd_sc_ms__nand3_1
XI7<0> ADDRint[2] ADDRB[1] ADDRB[0] SELBi_2[0] VSS VSS VDD2 VDD2 / 
+ sky130_fd_sc_ms__nand3_1
XI9<3> SELBi_2[3] SELi_2[3] VSS VSS VDD2 VDD2 / sky130_fd_sc_ms__inv_1
XI9<2> SELBi_2[2] SELi_2[2] VSS VSS VDD2 VDD2 / sky130_fd_sc_ms__inv_1
XI9<1> SELBi_2[1] SELi_2[1] VSS VSS VDD2 VDD2 / sky130_fd_sc_ms__inv_1
XI9<0> SELBi_2[0] SELi_2[0] VSS VSS VDD2 VDD2 / sky130_fd_sc_ms__inv_1
XI12<4> VSS VSS VDD5 VDD5 / sky130_fd_sc_hvl__decap_8
XI12<3> VSS VSS VDD5 VDD5 / sky130_fd_sc_hvl__decap_8
XI12<2> VSS VSS VDD5 VDD5 / sky130_fd_sc_hvl__decap_8
XI12<1> VSS VSS VDD5 VDD5 / sky130_fd_sc_hvl__decap_8
XI13<4> VSS VSS VSEL VSEL / sky130_fd_sc_hvl__decap_8
XI13<3> VSS VSS VSEL VSEL / sky130_fd_sc_hvl__decap_8
XI13<2> VSS VSS VSEL VSEL / sky130_fd_sc_hvl__decap_8
XI13<1> VSS VSS VSEL VSEL / sky130_fd_sc_hvl__decap_8
XI0<3> SEL_50[3] SELi_50[3] SELBi_50[3] VSEL VSS / RL_driver
XI0<2> SEL_50[2] SELi_50[2] SELBi_50[2] VSEL VSS / RL_driver
XI0<1> SEL_50[1] SELi_50[1] SELBi_50[1] VSEL VSS / RL_driver
XI0<0> SEL_50[0] SELi_50[0] SELBi_50[0] VSEL VSS / RL_driver
.ENDS

.SUBCKT RL_x8 ADDR[10] ADDR[2] ADDR[1] ADDR[0] ADDR[3] ADDR[4] ADDR[5] ADDR[6] 
+ ADDR[7] ADDR[8] ADDR[9] ADDRB[2] ADDRB[1] ADDRB[0] SEL_50[7] SEL_50[6] 
+ SEL_50[5] SEL_50[4] SEL_50[3] SEL_50[2] SEL_50[1] SEL_50[0] SELin_2 VDD2 
+ VDD5 VSEL VSS
XI3 ADDR[10] ADDR[9] ADDR[8] ADDR[7] ADDRint[0] VSS VSS VDD2 VDD2 / 
+ sky130_fd_sc_ms__and4_1
XI6 ADDR[6] ADDR[5] ADDR[4] ADDR[3] ADDRint[1] VSS VSS VDD2 VDD2 / 
+ sky130_fd_sc_ms__and4_1
XI9<7> VSS VSS VDD2 VDD2 / sky130_fd_sc_ms__decap_8
XI9<6> VSS VSS VDD2 VDD2 / sky130_fd_sc_ms__decap_8
XI9<5> VSS VSS VDD2 VDD2 / sky130_fd_sc_ms__decap_8
XI9<4> VSS VSS VDD2 VDD2 / sky130_fd_sc_ms__decap_8
XI9<3> VSS VSS VDD2 VDD2 / sky130_fd_sc_ms__decap_8
XI9<2> VSS VSS VDD2 VDD2 / sky130_fd_sc_ms__decap_8
XI9<1> VSS VSS VDD2 VDD2 / sky130_fd_sc_ms__decap_8
XI9<0> VSS VSS VDD2 VDD2 / sky130_fd_sc_ms__decap_8
CC3 VSS VDD5 sky130_fd_pr_cap_mim_m3 A=14.3 P=16.44 m=2
CC2 VDD5 VSS sky130_fd_pr_cap_mim_m3 A=7.436 P=14.04 m=2
XI8<1> ADDR[1] ADDR[0] ADDR[2] ADDRB[1] ADDRB[0] ADDRint[1] ADDRint[0] 
+ SEL_50[7] SEL_50[6] SEL_50[5] SEL_50[4] SELin_2 VDD2 VDD5 VSEL VSS / RL_x4
XI8<0> ADDR[1] ADDR[0] ADDRB[2] ADDRB[1] ADDRB[0] ADDRint[1] ADDRint[0] 
+ SEL_50[3] SEL_50[2] SEL_50[1] SEL_50[0] SELin_2 VDD2 VDD5 VSEL VSS / RL_x4
CC1 VSEL VSS sky130_fd_pr_cap_mim_m3 A=7.436 P=14.04 m=3
CC0 VSS VSEL sky130_fd_pr_cap_mim_m3 A=14.3 P=16.44 m=3
.ENDS

.SUBCKT RL_x2048 ADDR[10] ADDR[9] ADDR[8] ADDR[7] ADDR[6] ADDR[5] ADDR[4] 
+ ADDR[3] ADDR[2] ADDR[1] ADDR[0] ADDRB[10] ADDRB[9] ADDRB[8] ADDRB[7] 
+ ADDRB[6] ADDRB[5] ADDRB[4] ADDRB[3] ADDRB[2] ADDRB[1] ADDRB[0] SEL_50[2047] 
+ SEL_50[2046] SEL_50[2045] SEL_50[2044] SEL_50[2043] SEL_50[2042] 
+ SEL_50[2041] SEL_50[2040] SEL_50[2039] SEL_50[2038] SEL_50[2037] 
+ SEL_50[2036] SEL_50[2035] SEL_50[2034] SEL_50[2033] SEL_50[2032] 
+ SEL_50[2031] SEL_50[2030] SEL_50[2029] SEL_50[2028] SEL_50[2027] 
+ SEL_50[2026] SEL_50[2025] SEL_50[2024] SEL_50[2023] SEL_50[2022] 
+ SEL_50[2021] SEL_50[2020] SEL_50[2019] SEL_50[2018] SEL_50[2017] 
+ SEL_50[2016] SEL_50[2015] SEL_50[2014] SEL_50[2013] SEL_50[2012] 
+ SEL_50[2011] SEL_50[2010] SEL_50[2009] SEL_50[2008] SEL_50[2007] 
+ SEL_50[2006] SEL_50[2005] SEL_50[2004] SEL_50[2003] SEL_50[2002] 
+ SEL_50[2001] SEL_50[2000] SEL_50[1999] SEL_50[1998] SEL_50[1997] 
+ SEL_50[1996] SEL_50[1995] SEL_50[1994] SEL_50[1993] SEL_50[1992] 
+ SEL_50[1991] SEL_50[1990] SEL_50[1989] SEL_50[1988] SEL_50[1987] 
+ SEL_50[1986] SEL_50[1985] SEL_50[1984] SEL_50[1983] SEL_50[1982] 
+ SEL_50[1981] SEL_50[1980] SEL_50[1979] SEL_50[1978] SEL_50[1977] 
+ SEL_50[1976] SEL_50[1975] SEL_50[1974] SEL_50[1973] SEL_50[1972] 
+ SEL_50[1971] SEL_50[1970] SEL_50[1969] SEL_50[1968] SEL_50[1967] 
+ SEL_50[1966] SEL_50[1965] SEL_50[1964] SEL_50[1963] SEL_50[1962] 
+ SEL_50[1961] SEL_50[1960] SEL_50[1959] SEL_50[1958] SEL_50[1957] 
+ SEL_50[1956] SEL_50[1955] SEL_50[1954] SEL_50[1953] SEL_50[1952] 
+ SEL_50[1951] SEL_50[1950] SEL_50[1949] SEL_50[1948] SEL_50[1947] 
+ SEL_50[1946] SEL_50[1945] SEL_50[1944] SEL_50[1943] SEL_50[1942] 
+ SEL_50[1941] SEL_50[1940] SEL_50[1939] SEL_50[1938] SEL_50[1937] 
+ SEL_50[1936] SEL_50[1935] SEL_50[1934] SEL_50[1933] SEL_50[1932] 
+ SEL_50[1931] SEL_50[1930] SEL_50[1929] SEL_50[1928] SEL_50[1927] 
+ SEL_50[1926] SEL_50[1925] SEL_50[1924] SEL_50[1923] SEL_50[1922] 
+ SEL_50[1921] SEL_50[1920] SEL_50[1919] SEL_50[1918] SEL_50[1917] 
+ SEL_50[1916] SEL_50[1915] SEL_50[1914] SEL_50[1913] SEL_50[1912] 
+ SEL_50[1911] SEL_50[1910] SEL_50[1909] SEL_50[1908] SEL_50[1907] 
+ SEL_50[1906] SEL_50[1905] SEL_50[1904] SEL_50[1903] SEL_50[1902] 
+ SEL_50[1901] SEL_50[1900] SEL_50[1899] SEL_50[1898] SEL_50[1897] 
+ SEL_50[1896] SEL_50[1895] SEL_50[1894] SEL_50[1893] SEL_50[1892] 
+ SEL_50[1891] SEL_50[1890] SEL_50[1889] SEL_50[1888] SEL_50[1887] 
+ SEL_50[1886] SEL_50[1885] SEL_50[1884] SEL_50[1883] SEL_50[1882] 
+ SEL_50[1881] SEL_50[1880] SEL_50[1879] SEL_50[1878] SEL_50[1877] 
+ SEL_50[1876] SEL_50[1875] SEL_50[1874] SEL_50[1873] SEL_50[1872] 
+ SEL_50[1871] SEL_50[1870] SEL_50[1869] SEL_50[1868] SEL_50[1867] 
+ SEL_50[1866] SEL_50[1865] SEL_50[1864] SEL_50[1863] SEL_50[1862] 
+ SEL_50[1861] SEL_50[1860] SEL_50[1859] SEL_50[1858] SEL_50[1857] 
+ SEL_50[1856] SEL_50[1855] SEL_50[1854] SEL_50[1853] SEL_50[1852] 
+ SEL_50[1851] SEL_50[1850] SEL_50[1849] SEL_50[1848] SEL_50[1847] 
+ SEL_50[1846] SEL_50[1845] SEL_50[1844] SEL_50[1843] SEL_50[1842] 
+ SEL_50[1841] SEL_50[1840] SEL_50[1839] SEL_50[1838] SEL_50[1837] 
+ SEL_50[1836] SEL_50[1835] SEL_50[1834] SEL_50[1833] SEL_50[1832] 
+ SEL_50[1831] SEL_50[1830] SEL_50[1829] SEL_50[1828] SEL_50[1827] 
+ SEL_50[1826] SEL_50[1825] SEL_50[1824] SEL_50[1823] SEL_50[1822] 
+ SEL_50[1821] SEL_50[1820] SEL_50[1819] SEL_50[1818] SEL_50[1817] 
+ SEL_50[1816] SEL_50[1815] SEL_50[1814] SEL_50[1813] SEL_50[1812] 
+ SEL_50[1811] SEL_50[1810] SEL_50[1809] SEL_50[1808] SEL_50[1807] 
+ SEL_50[1806] SEL_50[1805] SEL_50[1804] SEL_50[1803] SEL_50[1802] 
+ SEL_50[1801] SEL_50[1800] SEL_50[1799] SEL_50[1798] SEL_50[1797] 
+ SEL_50[1796] SEL_50[1795] SEL_50[1794] SEL_50[1793] SEL_50[1792] 
+ SEL_50[1791] SEL_50[1790] SEL_50[1789] SEL_50[1788] SEL_50[1787] 
+ SEL_50[1786] SEL_50[1785] SEL_50[1784] SEL_50[1783] SEL_50[1782] 
+ SEL_50[1781] SEL_50[1780] SEL_50[1779] SEL_50[1778] SEL_50[1777] 
+ SEL_50[1776] SEL_50[1775] SEL_50[1774] SEL_50[1773] SEL_50[1772] 
+ SEL_50[1771] SEL_50[1770] SEL_50[1769] SEL_50[1768] SEL_50[1767] 
+ SEL_50[1766] SEL_50[1765] SEL_50[1764] SEL_50[1763] SEL_50[1762] 
+ SEL_50[1761] SEL_50[1760] SEL_50[1759] SEL_50[1758] SEL_50[1757] 
+ SEL_50[1756] SEL_50[1755] SEL_50[1754] SEL_50[1753] SEL_50[1752] 
+ SEL_50[1751] SEL_50[1750] SEL_50[1749] SEL_50[1748] SEL_50[1747] 
+ SEL_50[1746] SEL_50[1745] SEL_50[1744] SEL_50[1743] SEL_50[1742] 
+ SEL_50[1741] SEL_50[1740] SEL_50[1739] SEL_50[1738] SEL_50[1737] 
+ SEL_50[1736] SEL_50[1735] SEL_50[1734] SEL_50[1733] SEL_50[1732] 
+ SEL_50[1731] SEL_50[1730] SEL_50[1729] SEL_50[1728] SEL_50[1727] 
+ SEL_50[1726] SEL_50[1725] SEL_50[1724] SEL_50[1723] SEL_50[1722] 
+ SEL_50[1721] SEL_50[1720] SEL_50[1719] SEL_50[1718] SEL_50[1717] 
+ SEL_50[1716] SEL_50[1715] SEL_50[1714] SEL_50[1713] SEL_50[1712] 
+ SEL_50[1711] SEL_50[1710] SEL_50[1709] SEL_50[1708] SEL_50[1707] 
+ SEL_50[1706] SEL_50[1705] SEL_50[1704] SEL_50[1703] SEL_50[1702] 
+ SEL_50[1701] SEL_50[1700] SEL_50[1699] SEL_50[1698] SEL_50[1697] 
+ SEL_50[1696] SEL_50[1695] SEL_50[1694] SEL_50[1693] SEL_50[1692] 
+ SEL_50[1691] SEL_50[1690] SEL_50[1689] SEL_50[1688] SEL_50[1687] 
+ SEL_50[1686] SEL_50[1685] SEL_50[1684] SEL_50[1683] SEL_50[1682] 
+ SEL_50[1681] SEL_50[1680] SEL_50[1679] SEL_50[1678] SEL_50[1677] 
+ SEL_50[1676] SEL_50[1675] SEL_50[1674] SEL_50[1673] SEL_50[1672] 
+ SEL_50[1671] SEL_50[1670] SEL_50[1669] SEL_50[1668] SEL_50[1667] 
+ SEL_50[1666] SEL_50[1665] SEL_50[1664] SEL_50[1663] SEL_50[1662] 
+ SEL_50[1661] SEL_50[1660] SEL_50[1659] SEL_50[1658] SEL_50[1657] 
+ SEL_50[1656] SEL_50[1655] SEL_50[1654] SEL_50[1653] SEL_50[1652] 
+ SEL_50[1651] SEL_50[1650] SEL_50[1649] SEL_50[1648] SEL_50[1647] 
+ SEL_50[1646] SEL_50[1645] SEL_50[1644] SEL_50[1643] SEL_50[1642] 
+ SEL_50[1641] SEL_50[1640] SEL_50[1639] SEL_50[1638] SEL_50[1637] 
+ SEL_50[1636] SEL_50[1635] SEL_50[1634] SEL_50[1633] SEL_50[1632] 
+ SEL_50[1631] SEL_50[1630] SEL_50[1629] SEL_50[1628] SEL_50[1627] 
+ SEL_50[1626] SEL_50[1625] SEL_50[1624] SEL_50[1623] SEL_50[1622] 
+ SEL_50[1621] SEL_50[1620] SEL_50[1619] SEL_50[1618] SEL_50[1617] 
+ SEL_50[1616] SEL_50[1615] SEL_50[1614] SEL_50[1613] SEL_50[1612] 
+ SEL_50[1611] SEL_50[1610] SEL_50[1609] SEL_50[1608] SEL_50[1607] 
+ SEL_50[1606] SEL_50[1605] SEL_50[1604] SEL_50[1603] SEL_50[1602] 
+ SEL_50[1601] SEL_50[1600] SEL_50[1599] SEL_50[1598] SEL_50[1597] 
+ SEL_50[1596] SEL_50[1595] SEL_50[1594] SEL_50[1593] SEL_50[1592] 
+ SEL_50[1591] SEL_50[1590] SEL_50[1589] SEL_50[1588] SEL_50[1587] 
+ SEL_50[1586] SEL_50[1585] SEL_50[1584] SEL_50[1583] SEL_50[1582] 
+ SEL_50[1581] SEL_50[1580] SEL_50[1579] SEL_50[1578] SEL_50[1577] 
+ SEL_50[1576] SEL_50[1575] SEL_50[1574] SEL_50[1573] SEL_50[1572] 
+ SEL_50[1571] SEL_50[1570] SEL_50[1569] SEL_50[1568] SEL_50[1567] 
+ SEL_50[1566] SEL_50[1565] SEL_50[1564] SEL_50[1563] SEL_50[1562] 
+ SEL_50[1561] SEL_50[1560] SEL_50[1559] SEL_50[1558] SEL_50[1557] 
+ SEL_50[1556] SEL_50[1555] SEL_50[1554] SEL_50[1553] SEL_50[1552] 
+ SEL_50[1551] SEL_50[1550] SEL_50[1549] SEL_50[1548] SEL_50[1547] 
+ SEL_50[1546] SEL_50[1545] SEL_50[1544] SEL_50[1543] SEL_50[1542] 
+ SEL_50[1541] SEL_50[1540] SEL_50[1539] SEL_50[1538] SEL_50[1537] 
+ SEL_50[1536] SEL_50[1535] SEL_50[1534] SEL_50[1533] SEL_50[1532] 
+ SEL_50[1531] SEL_50[1530] SEL_50[1529] SEL_50[1528] SEL_50[1527] 
+ SEL_50[1526] SEL_50[1525] SEL_50[1524] SEL_50[1523] SEL_50[1522] 
+ SEL_50[1521] SEL_50[1520] SEL_50[1519] SEL_50[1518] SEL_50[1517] 
+ SEL_50[1516] SEL_50[1515] SEL_50[1514] SEL_50[1513] SEL_50[1512] 
+ SEL_50[1511] SEL_50[1510] SEL_50[1509] SEL_50[1508] SEL_50[1507] 
+ SEL_50[1506] SEL_50[1505] SEL_50[1504] SEL_50[1503] SEL_50[1502] 
+ SEL_50[1501] SEL_50[1500] SEL_50[1499] SEL_50[1498] SEL_50[1497] 
+ SEL_50[1496] SEL_50[1495] SEL_50[1494] SEL_50[1493] SEL_50[1492] 
+ SEL_50[1491] SEL_50[1490] SEL_50[1489] SEL_50[1488] SEL_50[1487] 
+ SEL_50[1486] SEL_50[1485] SEL_50[1484] SEL_50[1483] SEL_50[1482] 
+ SEL_50[1481] SEL_50[1480] SEL_50[1479] SEL_50[1478] SEL_50[1477] 
+ SEL_50[1476] SEL_50[1475] SEL_50[1474] SEL_50[1473] SEL_50[1472] 
+ SEL_50[1471] SEL_50[1470] SEL_50[1469] SEL_50[1468] SEL_50[1467] 
+ SEL_50[1466] SEL_50[1465] SEL_50[1464] SEL_50[1463] SEL_50[1462] 
+ SEL_50[1461] SEL_50[1460] SEL_50[1459] SEL_50[1458] SEL_50[1457] 
+ SEL_50[1456] SEL_50[1455] SEL_50[1454] SEL_50[1453] SEL_50[1452] 
+ SEL_50[1451] SEL_50[1450] SEL_50[1449] SEL_50[1448] SEL_50[1447] 
+ SEL_50[1446] SEL_50[1445] SEL_50[1444] SEL_50[1443] SEL_50[1442] 
+ SEL_50[1441] SEL_50[1440] SEL_50[1439] SEL_50[1438] SEL_50[1437] 
+ SEL_50[1436] SEL_50[1435] SEL_50[1434] SEL_50[1433] SEL_50[1432] 
+ SEL_50[1431] SEL_50[1430] SEL_50[1429] SEL_50[1428] SEL_50[1427] 
+ SEL_50[1426] SEL_50[1425] SEL_50[1424] SEL_50[1423] SEL_50[1422] 
+ SEL_50[1421] SEL_50[1420] SEL_50[1419] SEL_50[1418] SEL_50[1417] 
+ SEL_50[1416] SEL_50[1415] SEL_50[1414] SEL_50[1413] SEL_50[1412] 
+ SEL_50[1411] SEL_50[1410] SEL_50[1409] SEL_50[1408] SEL_50[1407] 
+ SEL_50[1406] SEL_50[1405] SEL_50[1404] SEL_50[1403] SEL_50[1402] 
+ SEL_50[1401] SEL_50[1400] SEL_50[1399] SEL_50[1398] SEL_50[1397] 
+ SEL_50[1396] SEL_50[1395] SEL_50[1394] SEL_50[1393] SEL_50[1392] 
+ SEL_50[1391] SEL_50[1390] SEL_50[1389] SEL_50[1388] SEL_50[1387] 
+ SEL_50[1386] SEL_50[1385] SEL_50[1384] SEL_50[1383] SEL_50[1382] 
+ SEL_50[1381] SEL_50[1380] SEL_50[1379] SEL_50[1378] SEL_50[1377] 
+ SEL_50[1376] SEL_50[1375] SEL_50[1374] SEL_50[1373] SEL_50[1372] 
+ SEL_50[1371] SEL_50[1370] SEL_50[1369] SEL_50[1368] SEL_50[1367] 
+ SEL_50[1366] SEL_50[1365] SEL_50[1364] SEL_50[1363] SEL_50[1362] 
+ SEL_50[1361] SEL_50[1360] SEL_50[1359] SEL_50[1358] SEL_50[1357] 
+ SEL_50[1356] SEL_50[1355] SEL_50[1354] SEL_50[1353] SEL_50[1352] 
+ SEL_50[1351] SEL_50[1350] SEL_50[1349] SEL_50[1348] SEL_50[1347] 
+ SEL_50[1346] SEL_50[1345] SEL_50[1344] SEL_50[1343] SEL_50[1342] 
+ SEL_50[1341] SEL_50[1340] SEL_50[1339] SEL_50[1338] SEL_50[1337] 
+ SEL_50[1336] SEL_50[1335] SEL_50[1334] SEL_50[1333] SEL_50[1332] 
+ SEL_50[1331] SEL_50[1330] SEL_50[1329] SEL_50[1328] SEL_50[1327] 
+ SEL_50[1326] SEL_50[1325] SEL_50[1324] SEL_50[1323] SEL_50[1322] 
+ SEL_50[1321] SEL_50[1320] SEL_50[1319] SEL_50[1318] SEL_50[1317] 
+ SEL_50[1316] SEL_50[1315] SEL_50[1314] SEL_50[1313] SEL_50[1312] 
+ SEL_50[1311] SEL_50[1310] SEL_50[1309] SEL_50[1308] SEL_50[1307] 
+ SEL_50[1306] SEL_50[1305] SEL_50[1304] SEL_50[1303] SEL_50[1302] 
+ SEL_50[1301] SEL_50[1300] SEL_50[1299] SEL_50[1298] SEL_50[1297] 
+ SEL_50[1296] SEL_50[1295] SEL_50[1294] SEL_50[1293] SEL_50[1292] 
+ SEL_50[1291] SEL_50[1290] SEL_50[1289] SEL_50[1288] SEL_50[1287] 
+ SEL_50[1286] SEL_50[1285] SEL_50[1284] SEL_50[1283] SEL_50[1282] 
+ SEL_50[1281] SEL_50[1280] SEL_50[1279] SEL_50[1278] SEL_50[1277] 
+ SEL_50[1276] SEL_50[1275] SEL_50[1274] SEL_50[1273] SEL_50[1272] 
+ SEL_50[1271] SEL_50[1270] SEL_50[1269] SEL_50[1268] SEL_50[1267] 
+ SEL_50[1266] SEL_50[1265] SEL_50[1264] SEL_50[1263] SEL_50[1262] 
+ SEL_50[1261] SEL_50[1260] SEL_50[1259] SEL_50[1258] SEL_50[1257] 
+ SEL_50[1256] SEL_50[1255] SEL_50[1254] SEL_50[1253] SEL_50[1252] 
+ SEL_50[1251] SEL_50[1250] SEL_50[1249] SEL_50[1248] SEL_50[1247] 
+ SEL_50[1246] SEL_50[1245] SEL_50[1244] SEL_50[1243] SEL_50[1242] 
+ SEL_50[1241] SEL_50[1240] SEL_50[1239] SEL_50[1238] SEL_50[1237] 
+ SEL_50[1236] SEL_50[1235] SEL_50[1234] SEL_50[1233] SEL_50[1232] 
+ SEL_50[1231] SEL_50[1230] SEL_50[1229] SEL_50[1228] SEL_50[1227] 
+ SEL_50[1226] SEL_50[1225] SEL_50[1224] SEL_50[1223] SEL_50[1222] 
+ SEL_50[1221] SEL_50[1220] SEL_50[1219] SEL_50[1218] SEL_50[1217] 
+ SEL_50[1216] SEL_50[1215] SEL_50[1214] SEL_50[1213] SEL_50[1212] 
+ SEL_50[1211] SEL_50[1210] SEL_50[1209] SEL_50[1208] SEL_50[1207] 
+ SEL_50[1206] SEL_50[1205] SEL_50[1204] SEL_50[1203] SEL_50[1202] 
+ SEL_50[1201] SEL_50[1200] SEL_50[1199] SEL_50[1198] SEL_50[1197] 
+ SEL_50[1196] SEL_50[1195] SEL_50[1194] SEL_50[1193] SEL_50[1192] 
+ SEL_50[1191] SEL_50[1190] SEL_50[1189] SEL_50[1188] SEL_50[1187] 
+ SEL_50[1186] SEL_50[1185] SEL_50[1184] SEL_50[1183] SEL_50[1182] 
+ SEL_50[1181] SEL_50[1180] SEL_50[1179] SEL_50[1178] SEL_50[1177] 
+ SEL_50[1176] SEL_50[1175] SEL_50[1174] SEL_50[1173] SEL_50[1172] 
+ SEL_50[1171] SEL_50[1170] SEL_50[1169] SEL_50[1168] SEL_50[1167] 
+ SEL_50[1166] SEL_50[1165] SEL_50[1164] SEL_50[1163] SEL_50[1162] 
+ SEL_50[1161] SEL_50[1160] SEL_50[1159] SEL_50[1158] SEL_50[1157] 
+ SEL_50[1156] SEL_50[1155] SEL_50[1154] SEL_50[1153] SEL_50[1152] 
+ SEL_50[1151] SEL_50[1150] SEL_50[1149] SEL_50[1148] SEL_50[1147] 
+ SEL_50[1146] SEL_50[1145] SEL_50[1144] SEL_50[1143] SEL_50[1142] 
+ SEL_50[1141] SEL_50[1140] SEL_50[1139] SEL_50[1138] SEL_50[1137] 
+ SEL_50[1136] SEL_50[1135] SEL_50[1134] SEL_50[1133] SEL_50[1132] 
+ SEL_50[1131] SEL_50[1130] SEL_50[1129] SEL_50[1128] SEL_50[1127] 
+ SEL_50[1126] SEL_50[1125] SEL_50[1124] SEL_50[1123] SEL_50[1122] 
+ SEL_50[1121] SEL_50[1120] SEL_50[1119] SEL_50[1118] SEL_50[1117] 
+ SEL_50[1116] SEL_50[1115] SEL_50[1114] SEL_50[1113] SEL_50[1112] 
+ SEL_50[1111] SEL_50[1110] SEL_50[1109] SEL_50[1108] SEL_50[1107] 
+ SEL_50[1106] SEL_50[1105] SEL_50[1104] SEL_50[1103] SEL_50[1102] 
+ SEL_50[1101] SEL_50[1100] SEL_50[1099] SEL_50[1098] SEL_50[1097] 
+ SEL_50[1096] SEL_50[1095] SEL_50[1094] SEL_50[1093] SEL_50[1092] 
+ SEL_50[1091] SEL_50[1090] SEL_50[1089] SEL_50[1088] SEL_50[1087] 
+ SEL_50[1086] SEL_50[1085] SEL_50[1084] SEL_50[1083] SEL_50[1082] 
+ SEL_50[1081] SEL_50[1080] SEL_50[1079] SEL_50[1078] SEL_50[1077] 
+ SEL_50[1076] SEL_50[1075] SEL_50[1074] SEL_50[1073] SEL_50[1072] 
+ SEL_50[1071] SEL_50[1070] SEL_50[1069] SEL_50[1068] SEL_50[1067] 
+ SEL_50[1066] SEL_50[1065] SEL_50[1064] SEL_50[1063] SEL_50[1062] 
+ SEL_50[1061] SEL_50[1060] SEL_50[1059] SEL_50[1058] SEL_50[1057] 
+ SEL_50[1056] SEL_50[1055] SEL_50[1054] SEL_50[1053] SEL_50[1052] 
+ SEL_50[1051] SEL_50[1050] SEL_50[1049] SEL_50[1048] SEL_50[1047] 
+ SEL_50[1046] SEL_50[1045] SEL_50[1044] SEL_50[1043] SEL_50[1042] 
+ SEL_50[1041] SEL_50[1040] SEL_50[1039] SEL_50[1038] SEL_50[1037] 
+ SEL_50[1036] SEL_50[1035] SEL_50[1034] SEL_50[1033] SEL_50[1032] 
+ SEL_50[1031] SEL_50[1030] SEL_50[1029] SEL_50[1028] SEL_50[1027] 
+ SEL_50[1026] SEL_50[1025] SEL_50[1024] SEL_50[1023] SEL_50[1022] 
+ SEL_50[1021] SEL_50[1020] SEL_50[1019] SEL_50[1018] SEL_50[1017] 
+ SEL_50[1016] SEL_50[1015] SEL_50[1014] SEL_50[1013] SEL_50[1012] 
+ SEL_50[1011] SEL_50[1010] SEL_50[1009] SEL_50[1008] SEL_50[1007] 
+ SEL_50[1006] SEL_50[1005] SEL_50[1004] SEL_50[1003] SEL_50[1002] 
+ SEL_50[1001] SEL_50[1000] SEL_50[999] SEL_50[998] SEL_50[997] SEL_50[996] 
+ SEL_50[995] SEL_50[994] SEL_50[993] SEL_50[992] SEL_50[991] SEL_50[990] 
+ SEL_50[989] SEL_50[988] SEL_50[987] SEL_50[986] SEL_50[985] SEL_50[984] 
+ SEL_50[983] SEL_50[982] SEL_50[981] SEL_50[980] SEL_50[979] SEL_50[978] 
+ SEL_50[977] SEL_50[976] SEL_50[975] SEL_50[974] SEL_50[973] SEL_50[972] 
+ SEL_50[971] SEL_50[970] SEL_50[969] SEL_50[968] SEL_50[967] SEL_50[966] 
+ SEL_50[965] SEL_50[964] SEL_50[963] SEL_50[962] SEL_50[961] SEL_50[960] 
+ SEL_50[959] SEL_50[958] SEL_50[957] SEL_50[956] SEL_50[955] SEL_50[954] 
+ SEL_50[953] SEL_50[952] SEL_50[951] SEL_50[950] SEL_50[949] SEL_50[948] 
+ SEL_50[947] SEL_50[946] SEL_50[945] SEL_50[944] SEL_50[943] SEL_50[942] 
+ SEL_50[941] SEL_50[940] SEL_50[939] SEL_50[938] SEL_50[937] SEL_50[936] 
+ SEL_50[935] SEL_50[934] SEL_50[933] SEL_50[932] SEL_50[931] SEL_50[930] 
+ SEL_50[929] SEL_50[928] SEL_50[927] SEL_50[926] SEL_50[925] SEL_50[924] 
+ SEL_50[923] SEL_50[922] SEL_50[921] SEL_50[920] SEL_50[919] SEL_50[918] 
+ SEL_50[917] SEL_50[916] SEL_50[915] SEL_50[914] SEL_50[913] SEL_50[912] 
+ SEL_50[911] SEL_50[910] SEL_50[909] SEL_50[908] SEL_50[907] SEL_50[906] 
+ SEL_50[905] SEL_50[904] SEL_50[903] SEL_50[902] SEL_50[901] SEL_50[900] 
+ SEL_50[899] SEL_50[898] SEL_50[897] SEL_50[896] SEL_50[895] SEL_50[894] 
+ SEL_50[893] SEL_50[892] SEL_50[891] SEL_50[890] SEL_50[889] SEL_50[888] 
+ SEL_50[887] SEL_50[886] SEL_50[885] SEL_50[884] SEL_50[883] SEL_50[882] 
+ SEL_50[881] SEL_50[880] SEL_50[879] SEL_50[878] SEL_50[877] SEL_50[876] 
+ SEL_50[875] SEL_50[874] SEL_50[873] SEL_50[872] SEL_50[871] SEL_50[870] 
+ SEL_50[869] SEL_50[868] SEL_50[867] SEL_50[866] SEL_50[865] SEL_50[864] 
+ SEL_50[863] SEL_50[862] SEL_50[861] SEL_50[860] SEL_50[859] SEL_50[858] 
+ SEL_50[857] SEL_50[856] SEL_50[855] SEL_50[854] SEL_50[853] SEL_50[852] 
+ SEL_50[851] SEL_50[850] SEL_50[849] SEL_50[848] SEL_50[847] SEL_50[846] 
+ SEL_50[845] SEL_50[844] SEL_50[843] SEL_50[842] SEL_50[841] SEL_50[840] 
+ SEL_50[839] SEL_50[838] SEL_50[837] SEL_50[836] SEL_50[835] SEL_50[834] 
+ SEL_50[833] SEL_50[832] SEL_50[831] SEL_50[830] SEL_50[829] SEL_50[828] 
+ SEL_50[827] SEL_50[826] SEL_50[825] SEL_50[824] SEL_50[823] SEL_50[822] 
+ SEL_50[821] SEL_50[820] SEL_50[819] SEL_50[818] SEL_50[817] SEL_50[816] 
+ SEL_50[815] SEL_50[814] SEL_50[813] SEL_50[812] SEL_50[811] SEL_50[810] 
+ SEL_50[809] SEL_50[808] SEL_50[807] SEL_50[806] SEL_50[805] SEL_50[804] 
+ SEL_50[803] SEL_50[802] SEL_50[801] SEL_50[800] SEL_50[799] SEL_50[798] 
+ SEL_50[797] SEL_50[796] SEL_50[795] SEL_50[794] SEL_50[793] SEL_50[792] 
+ SEL_50[791] SEL_50[790] SEL_50[789] SEL_50[788] SEL_50[787] SEL_50[786] 
+ SEL_50[785] SEL_50[784] SEL_50[783] SEL_50[782] SEL_50[781] SEL_50[780] 
+ SEL_50[779] SEL_50[778] SEL_50[777] SEL_50[776] SEL_50[775] SEL_50[774] 
+ SEL_50[773] SEL_50[772] SEL_50[771] SEL_50[770] SEL_50[769] SEL_50[768] 
+ SEL_50[767] SEL_50[766] SEL_50[765] SEL_50[764] SEL_50[763] SEL_50[762] 
+ SEL_50[761] SEL_50[760] SEL_50[759] SEL_50[758] SEL_50[757] SEL_50[756] 
+ SEL_50[755] SEL_50[754] SEL_50[753] SEL_50[752] SEL_50[751] SEL_50[750] 
+ SEL_50[749] SEL_50[748] SEL_50[747] SEL_50[746] SEL_50[745] SEL_50[744] 
+ SEL_50[743] SEL_50[742] SEL_50[741] SEL_50[740] SEL_50[739] SEL_50[738] 
+ SEL_50[737] SEL_50[736] SEL_50[735] SEL_50[734] SEL_50[733] SEL_50[732] 
+ SEL_50[731] SEL_50[730] SEL_50[729] SEL_50[728] SEL_50[727] SEL_50[726] 
+ SEL_50[725] SEL_50[724] SEL_50[723] SEL_50[722] SEL_50[721] SEL_50[720] 
+ SEL_50[719] SEL_50[718] SEL_50[717] SEL_50[716] SEL_50[715] SEL_50[714] 
+ SEL_50[713] SEL_50[712] SEL_50[711] SEL_50[710] SEL_50[709] SEL_50[708] 
+ SEL_50[707] SEL_50[706] SEL_50[705] SEL_50[704] SEL_50[703] SEL_50[702] 
+ SEL_50[701] SEL_50[700] SEL_50[699] SEL_50[698] SEL_50[697] SEL_50[696] 
+ SEL_50[695] SEL_50[694] SEL_50[693] SEL_50[692] SEL_50[691] SEL_50[690] 
+ SEL_50[689] SEL_50[688] SEL_50[687] SEL_50[686] SEL_50[685] SEL_50[684] 
+ SEL_50[683] SEL_50[682] SEL_50[681] SEL_50[680] SEL_50[679] SEL_50[678] 
+ SEL_50[677] SEL_50[676] SEL_50[675] SEL_50[674] SEL_50[673] SEL_50[672] 
+ SEL_50[671] SEL_50[670] SEL_50[669] SEL_50[668] SEL_50[667] SEL_50[666] 
+ SEL_50[665] SEL_50[664] SEL_50[663] SEL_50[662] SEL_50[661] SEL_50[660] 
+ SEL_50[659] SEL_50[658] SEL_50[657] SEL_50[656] SEL_50[655] SEL_50[654] 
+ SEL_50[653] SEL_50[652] SEL_50[651] SEL_50[650] SEL_50[649] SEL_50[648] 
+ SEL_50[647] SEL_50[646] SEL_50[645] SEL_50[644] SEL_50[643] SEL_50[642] 
+ SEL_50[641] SEL_50[640] SEL_50[639] SEL_50[638] SEL_50[637] SEL_50[636] 
+ SEL_50[635] SEL_50[634] SEL_50[633] SEL_50[632] SEL_50[631] SEL_50[630] 
+ SEL_50[629] SEL_50[628] SEL_50[627] SEL_50[626] SEL_50[625] SEL_50[624] 
+ SEL_50[623] SEL_50[622] SEL_50[621] SEL_50[620] SEL_50[619] SEL_50[618] 
+ SEL_50[617] SEL_50[616] SEL_50[615] SEL_50[614] SEL_50[613] SEL_50[612] 
+ SEL_50[611] SEL_50[610] SEL_50[609] SEL_50[608] SEL_50[607] SEL_50[606] 
+ SEL_50[605] SEL_50[604] SEL_50[603] SEL_50[602] SEL_50[601] SEL_50[600] 
+ SEL_50[599] SEL_50[598] SEL_50[597] SEL_50[596] SEL_50[595] SEL_50[594] 
+ SEL_50[593] SEL_50[592] SEL_50[591] SEL_50[590] SEL_50[589] SEL_50[588] 
+ SEL_50[587] SEL_50[586] SEL_50[585] SEL_50[584] SEL_50[583] SEL_50[582] 
+ SEL_50[581] SEL_50[580] SEL_50[579] SEL_50[578] SEL_50[577] SEL_50[576] 
+ SEL_50[575] SEL_50[574] SEL_50[573] SEL_50[572] SEL_50[571] SEL_50[570] 
+ SEL_50[569] SEL_50[568] SEL_50[567] SEL_50[566] SEL_50[565] SEL_50[564] 
+ SEL_50[563] SEL_50[562] SEL_50[561] SEL_50[560] SEL_50[559] SEL_50[558] 
+ SEL_50[557] SEL_50[556] SEL_50[555] SEL_50[554] SEL_50[553] SEL_50[552] 
+ SEL_50[551] SEL_50[550] SEL_50[549] SEL_50[548] SEL_50[547] SEL_50[546] 
+ SEL_50[545] SEL_50[544] SEL_50[543] SEL_50[542] SEL_50[541] SEL_50[540] 
+ SEL_50[539] SEL_50[538] SEL_50[537] SEL_50[536] SEL_50[535] SEL_50[534] 
+ SEL_50[533] SEL_50[532] SEL_50[531] SEL_50[530] SEL_50[529] SEL_50[528] 
+ SEL_50[527] SEL_50[526] SEL_50[525] SEL_50[524] SEL_50[523] SEL_50[522] 
+ SEL_50[521] SEL_50[520] SEL_50[519] SEL_50[518] SEL_50[517] SEL_50[516] 
+ SEL_50[515] SEL_50[514] SEL_50[513] SEL_50[512] SEL_50[511] SEL_50[510] 
+ SEL_50[509] SEL_50[508] SEL_50[507] SEL_50[506] SEL_50[505] SEL_50[504] 
+ SEL_50[503] SEL_50[502] SEL_50[501] SEL_50[500] SEL_50[499] SEL_50[498] 
+ SEL_50[497] SEL_50[496] SEL_50[495] SEL_50[494] SEL_50[493] SEL_50[492] 
+ SEL_50[491] SEL_50[490] SEL_50[489] SEL_50[488] SEL_50[487] SEL_50[486] 
+ SEL_50[485] SEL_50[484] SEL_50[483] SEL_50[482] SEL_50[481] SEL_50[480] 
+ SEL_50[479] SEL_50[478] SEL_50[477] SEL_50[476] SEL_50[475] SEL_50[474] 
+ SEL_50[473] SEL_50[472] SEL_50[471] SEL_50[470] SEL_50[469] SEL_50[468] 
+ SEL_50[467] SEL_50[466] SEL_50[465] SEL_50[464] SEL_50[463] SEL_50[462] 
+ SEL_50[461] SEL_50[460] SEL_50[459] SEL_50[458] SEL_50[457] SEL_50[456] 
+ SEL_50[455] SEL_50[454] SEL_50[453] SEL_50[452] SEL_50[451] SEL_50[450] 
+ SEL_50[449] SEL_50[448] SEL_50[447] SEL_50[446] SEL_50[445] SEL_50[444] 
+ SEL_50[443] SEL_50[442] SEL_50[441] SEL_50[440] SEL_50[439] SEL_50[438] 
+ SEL_50[437] SEL_50[436] SEL_50[435] SEL_50[434] SEL_50[433] SEL_50[432] 
+ SEL_50[431] SEL_50[430] SEL_50[429] SEL_50[428] SEL_50[427] SEL_50[426] 
+ SEL_50[425] SEL_50[424] SEL_50[423] SEL_50[422] SEL_50[421] SEL_50[420] 
+ SEL_50[419] SEL_50[418] SEL_50[417] SEL_50[416] SEL_50[415] SEL_50[414] 
+ SEL_50[413] SEL_50[412] SEL_50[411] SEL_50[410] SEL_50[409] SEL_50[408] 
+ SEL_50[407] SEL_50[406] SEL_50[405] SEL_50[404] SEL_50[403] SEL_50[402] 
+ SEL_50[401] SEL_50[400] SEL_50[399] SEL_50[398] SEL_50[397] SEL_50[396] 
+ SEL_50[395] SEL_50[394] SEL_50[393] SEL_50[392] SEL_50[391] SEL_50[390] 
+ SEL_50[389] SEL_50[388] SEL_50[387] SEL_50[386] SEL_50[385] SEL_50[384] 
+ SEL_50[383] SEL_50[382] SEL_50[381] SEL_50[380] SEL_50[379] SEL_50[378] 
+ SEL_50[377] SEL_50[376] SEL_50[375] SEL_50[374] SEL_50[373] SEL_50[372] 
+ SEL_50[371] SEL_50[370] SEL_50[369] SEL_50[368] SEL_50[367] SEL_50[366] 
+ SEL_50[365] SEL_50[364] SEL_50[363] SEL_50[362] SEL_50[361] SEL_50[360] 
+ SEL_50[359] SEL_50[358] SEL_50[357] SEL_50[356] SEL_50[355] SEL_50[354] 
+ SEL_50[353] SEL_50[352] SEL_50[351] SEL_50[350] SEL_50[349] SEL_50[348] 
+ SEL_50[347] SEL_50[346] SEL_50[345] SEL_50[344] SEL_50[343] SEL_50[342] 
+ SEL_50[341] SEL_50[340] SEL_50[339] SEL_50[338] SEL_50[337] SEL_50[336] 
+ SEL_50[335] SEL_50[334] SEL_50[333] SEL_50[332] SEL_50[331] SEL_50[330] 
+ SEL_50[329] SEL_50[328] SEL_50[327] SEL_50[326] SEL_50[325] SEL_50[324] 
+ SEL_50[323] SEL_50[322] SEL_50[321] SEL_50[320] SEL_50[319] SEL_50[318] 
+ SEL_50[317] SEL_50[316] SEL_50[315] SEL_50[314] SEL_50[313] SEL_50[312] 
+ SEL_50[311] SEL_50[310] SEL_50[309] SEL_50[308] SEL_50[307] SEL_50[306] 
+ SEL_50[305] SEL_50[304] SEL_50[303] SEL_50[302] SEL_50[301] SEL_50[300] 